# generated using pymatgen
data_Fe3O4
_symmetry_space_group_name_H-M   'P 1'
_cell_length_a   6.05727528
_cell_length_b   6.05727528
_cell_length_c   6.05727527
_cell_angle_alpha   59.99999998
_cell_angle_beta   60.00000000
_cell_angle_gamma   59.99999995
_symmetry_Int_Tables_number   1
_chemical_formula_structural   Fe3O4
_chemical_formula_sum   'Fe6 O8'
_cell_volume   157.15092235
_cell_formula_units_Z   2
loop_
 _symmetry_equiv_pos_site_id
 _symmetry_equiv_pos_as_xyz
  1  'x, y, z'
loop_
 _atom_site_type_symbol
 _atom_site_label
 _atom_site_symmetry_multiplicity
 _atom_site_fract_x
 _atom_site_fract_y
 _atom_site_fract_z
 _atom_site_occupancy
  O  O1  1  0.744466  0.744467  0.744466  1
  O  O2  1  0.255534  0.255535  0.733397  1
  O  O3  1  0.255533  0.733399  0.255534  1
  O  O4  1  0.733397  0.255535  0.255534  1
  O  O5  1  0.744467  0.266603  0.744465  1
  O  O6  1  0.266602  0.744467  0.744465  1
  O  O7  1  0.255534  0.255535  0.255534  1
  O  O8  1  0.744466  0.744467  0.266601  1
  Fe  Fe9  1  0.499999  0.000000  0.500000  1
  Fe  Fe10  1  1.000000  0.500000  0.500000  1
  Fe  Fe11  1  0.499999  0.500000  1.000000  1
  Fe  Fe12  1  0.499999  0.500000  0.500001  1
  Fe  Fe13  1  0.875000  0.875001  0.875000  1
  Fe  Fe14  1  0.124999  0.125001  0.125000  1
