# generated using pymatgen
data_Fe3O4
_symmetry_space_group_name_H-M   'P 1'
_cell_length_a   8.56628084
_cell_length_b   8.56628084
_cell_length_c   8.56628084
_cell_angle_alpha   90.00000000
_cell_angle_beta   90.00000000
_cell_angle_gamma   90.00000000
_symmetry_Int_Tables_number   1
_chemical_formula_structural   Fe3O4
_chemical_formula_sum   'Fe24 O32'
_cell_volume   628.60368941
_cell_formula_units_Z   8
loop_
 _symmetry_equiv_pos_site_id
 _symmetry_equiv_pos_as_xyz
  1  'x, y, z'
loop_
 _atom_site_type_symbol
 _atom_site_label
 _atom_site_symmetry_multiplicity
 _atom_site_fract_x
 _atom_site_fract_y
 _atom_site_fract_z
 _atom_site_occupancy
  Fe  Fe1  1  0.625000  0.375000  0.375000  1
  Fe  Fe2  1  0.375000  0.375000  0.625000  1
  Fe  Fe3  1  0.125000  0.125000  0.625000  1
  Fe  Fe4  1  0.875000  0.125000  0.375000  1
  Fe  Fe5  1  0.750000  0.250000  0.750000  1
  Fe  Fe6  1  0.500000  0.500000  0.000000  1
  Fe  Fe7  1  0.625000  0.875000  0.875000  1
  Fe  Fe8  1  0.375000  0.875000  0.125000  1
  Fe  Fe9  1  0.125000  0.625000  0.125000  1
  Fe  Fe10  1  0.875000  0.625000  0.875000  1
  Fe  Fe11  1  0.750000  0.750000  0.250000  1
  Fe  Fe12  1  0.500000  0.000000  0.500000  1
  Fe  Fe13  1  0.125000  0.375000  0.875000  1
  Fe  Fe14  1  0.875000  0.375000  0.125000  1
  Fe  Fe15  1  0.625000  0.125000  0.125000  1
  Fe  Fe16  1  0.375000  0.125000  0.875000  1
  Fe  Fe17  1  0.250000  0.250000  0.250000  1
  Fe  Fe18  1  0.000000  0.500000  0.500000  1
  Fe  Fe19  1  0.125000  0.875000  0.375000  1
  Fe  Fe20  1  0.875000  0.875000  0.625000  1
  Fe  Fe21  1  0.625000  0.625000  0.625000  1
  Fe  Fe22  1  0.375000  0.625000  0.375000  1
  Fe  Fe23  1  0.250000  0.750000  0.750000  1
  Fe  Fe24  1  0.000000  0.000000  0.000000  1
  O  O25  1  0.619466  0.380534  0.619466  1
  O  O26  1  0.869466  0.369466  0.369466  1
  O  O27  1  0.869466  0.130534  0.130534  1
  O  O28  1  0.630534  0.130534  0.369466  1
  O  O29  1  0.380534  0.619466  0.619466  1
  O  O30  1  0.619466  0.619466  0.380534  1
  O  O31  1  0.630534  0.369466  0.130534  1
  O  O32  1  0.380534  0.380534  0.380534  1
  O  O33  1  0.619466  0.880534  0.119466  1
  O  O34  1  0.869466  0.869466  0.869466  1
  O  O35  1  0.869466  0.630534  0.630534  1
  O  O36  1  0.630534  0.630534  0.869466  1
  O  O37  1  0.380534  0.119466  0.119466  1
  O  O38  1  0.619466  0.119466  0.880534  1
  O  O39  1  0.630534  0.869466  0.630534  1
  O  O40  1  0.380534  0.880534  0.880534  1
  O  O41  1  0.119466  0.380534  0.119466  1
  O  O42  1  0.369466  0.369466  0.869466  1
  O  O43  1  0.369466  0.130534  0.630534  1
  O  O44  1  0.130534  0.130534  0.869466  1
  O  O45  1  0.880534  0.619466  0.119466  1
  O  O46  1  0.119466  0.619466  0.880534  1
  O  O47  1  0.130534  0.369466  0.630534  1
  O  O48  1  0.880534  0.380534  0.880534  1
  O  O49  1  0.119466  0.880534  0.619466  1
  O  O50  1  0.369466  0.869466  0.369466  1
  O  O51  1  0.369466  0.630534  0.130534  1
  O  O52  1  0.130534  0.630534  0.369466  1
  O  O53  1  0.880534  0.119466  0.619466  1
  O  O54  1  0.119466  0.119466  0.380534  1
  O  O55  1  0.130534  0.869466  0.130534  1
  O  O56  1  0.880534  0.880534  0.380534  1
